results/case1-flows_q.csv
ID,F_BUS,T_BUS,QF,QF1,QT1,QT,QSF,QST,TAP,TYPE
E1,1,2,26.148146190090927,27.979808690090927,20.948827921460275,22.3784215719968,1.8316624999999995,1.4295936505365259,1.0,E
E2,1,3,25.5949846315166,27.4266471315166,18.522530529548057,19.94495081627209,1.8316624999999995,1.4224202867240354,1.0,E
E3,2,3,-2.6215784279969325,-1.1919847774604067,-1.3673711030040645,0.055049183719970904,1.4295936505365259,1.4224202867240354,1.0,E
L2,2,0,20.0,20.0,20.0,20.0,0.0,0.0,1.0,L
L3,3,0,20.0,20.0,20.0,20.0,0.0,0.0,1.0,L
G1,0,1,51.74313082160752,51.74313082160752,51.74313082160752,51.74313082160752,0.0,0.0,1.0,G
G2,2,0,5.0,5.0,5.0,5.0,0.0,0.0,1.0,L
